/*--------------------------------*- C++ -*----------------------------------*\
| =========                 |                                                 |
| \\      /  F ield         | OpenFOAM: The Open Source CFD Toolbox           |
|  \\    /   O peration     | Version:  v2312                                 |
|   \\  /    A nd           | Website:  www.openfoam.com                      |
|    \\/     M anipulation  |                                                 |
\*---------------------------------------------------------------------------*/
FoamFile
{
    version     2.0;
    format      ascii;
    class       dictionary;
    object      blockMeshDict;
}
// * * * * * * * * * * * * * * * * * * * * * * * * * * * * * * * * * * * * * //

mergeType points;   // Wedge geometry - Merge points instead of topology

scale   0.0254;

L      10;
ang    ${{ 2.5*3.14159265358979/180.0 }};
cs     ${{ cos($ang) }};
sn     ${{ sin($ang) }};
rin    0.892062058076386;
rout   0.690988298942671;

yin   ${{ $rin*$cs }};
zin   ${{ $rin*$sn }};

yout  ${{ $rout*$cs }};
zout  ${{ $rout*$sn }};

ndiv  200;


vertices
(
    ( 0   0   0)          // 0
    ($L   0   0)          // 1
    ( 0   $yin   -$zin)   // 2
    ($L   $yout  -$zout)  // 3
    ( 0   $yin    $zin)   // 4
    ($L   $yout   $zout)  // 5
);

blocks
(
    hex (0 1 3 2 0 1 5 4) ($ndiv  20  1) simpleGrading (1 1 1)
);

edges #codeStream
{
    codeInclude
    #{
        #include "pointField.H"
        #include "mathematicalConstants.H"
    #};

    code
    #{
        constexpr scalar xMin = 0;
        constexpr scalar xMax = 10;
        constexpr label nPoints = $ndiv + 1;
        constexpr scalar dx = (xMax - xMin)/scalar(nPoints - 1);
        constexpr scalar pi = constant::mathematical::pi;

        scalar cs = cos(2.5*pi/180.0);
        scalar sn = sin(2.5*pi/180.0);

        os  << "(" << nl << "spline 2 3" << nl;
        pointField profile(nPoints);

        for (label i = 0; i < nPoints; ++i)
        {
            scalar x = xMin + i*dx;
            scalar r(0.0);
            if ( x < 5.0 ) {
              scalar area ( 1.75 - 0.75 * cos( ( 0.2 * x - 1.0 ) * pi ) );
              r = sqrt(area/pi);
            }
            else {
              scalar area ( 1.25 - 0.25 * cos( ( 0.2 * x - 1.0 ) * pi ) );
              r = sqrt(area/pi);
            }
            profile[i].x() = x;
            profile[i].y() = r*cs;
            profile[i].z() =-r*sn;
        }
        os << profile << nl;

        os << "spline 4 5" << nl;
        for (label i = 0; i < nPoints; ++i)
        {
            scalar x = xMin + i*dx;
            scalar r(0.0);
            if ( x < 5.0 ) {
              scalar area ( 1.75 - 0.75 * cos( ( 0.2 * x - 1.0 ) * pi ) );
              r = sqrt(area/pi);
            }
            else {
              scalar area ( 1.25 - 0.25 * cos( ( 0.2 * x - 1.0 ) * pi ) );
              r = sqrt(area/pi);
            }
            profile[i].x() = x;
            profile[i].y() = r*cs;
            profile[i].z() = r*sn;
        }
        os << profile << nl;

        os  << ");" << nl;
    #};
};

boundary
(
    inlet
    {
        type patch;
        faces
        (
            (0 2 4 0)
        );
    }

    outlet
    {
        type patch;
        faces
        (
            (1 3 5 1)
        );
    }

    wall
    {
        type wall;
        faces
        (
            (2 4 5 3)
        );
    }

    wedge1
    {
        type wedge;
        faces
        (
            (0 2 3 1)
        );
    }

    wedge2
    {
        type wedge;
        faces
        (
            (0 1 5 4)
        );
    }
);

mergePatchPairs
(
);


// ************************************************************************* //
