/*--------------------------------*- C++ -*----------------------------------*\
| =========                 |                                                 |
| \\      /  F ield         | OpenFOAM: The Open Source CFD Toolbox           |
|  \\    /   O peration     | Version:  2.1.1                                 |
|   \\  /    A nd           | Web:      www.OpenFOAM.org                      |
|    \\/     M anipulation  |                                                 |
\*---------------------------------------------------------------------------*/
FoamFile
{
    version     2.0;
    format      ascii;
    class       dictionary;
    location    "system";
    object      controlDict;
}
// * * * * * * * * * * * * * * * * * * * * * * * * * * * * * * * * * * * * * //

application     rhoCentralFoam;

startFrom       latestTime;

startTime       0;

stopAt          endTime;

//endTime         1e-3;
endTime         0.075;

deltaT          1e-8;

writeControl    adjustableRunTime;

writeInterval   1e-3;

purgeWrite      0;

writeFormat     ascii;

//writePrecision  6;
writePrecision  10;

writeCompression off;

timeFormat      general;

timePrecision   6;

runTimeModifiable true;

adjustTimeStep  yes;

maxCo           0.25;

maxDeltaT       1;

functions
{
    #include "sample"
    #include "probes"
}

// ************************************************************************* //
